CM EXAMPLE 2.  CENTER FED LINEAR ANTENNA.
CM            CURRENT SLOPE DISCONTINUITY SOURCE.
GW  0    8        0.        0.      -.25        0.        0.      .25      .0001
GE
FR  0    3    0    0      200.       50.
EX  5    0    5    1        1.        0.       50.
XQ
LD  5    0    0    0 3.720E+07
FR  0    1    0    0      300.
EX  5    0    5    0        1.
XQ
RP  0   10    4 1001        0.        0.       10.       30.
EN
